16
84ts_reopt.out	Energy: -147081.3724076
C          2.41287       -0.20119       -0.48105
C          1.42601       -0.81693        0.14907
C          0.00000        0.35514        0.64028
C          0.00002        1.61029        0.09262
C         -2.41287       -0.20118       -0.48107
C         -1.42604       -0.81690        0.14912
H          1.46403       -1.82885        0.55482
H          2.27036        0.84029       -0.77716
H          3.37099       -0.67286       -0.68282
H         -3.37100       -0.67285       -0.68282
H         -2.27033        0.84027       -0.77728
H         -0.00002       -0.65507       -0.09390
H         -1.46409       -1.82877        0.55495
H          0.00002        2.46138        0.76055
H          0.00001        1.78480       -0.97614
H          0.00001        0.15624        1.70606
